35
Lattice="6.734772289856238 0.0 0.0 -3.3673861449281177 5.832483891718998 0.0 0.0 0.0 7.331891397325881" Properties=species:S:1:pos:R:3:spacegroup_kinds:I:1 spacegroup="P 63/m m c" unit_cell=conventional pbc="T T T"
Ar       1.12246205       0.64805377       0.91648642        0
Ar       0.00000000       1.29610753       6.41540497        0
Ar       1.12246205       0.64805377       4.58243212        0
Ar      -1.12246205       3.24026883       2.74945927        0
Ar       0.00000000       2.59221506       0.91648642        0
Ar      -1.12246205       3.24026883       6.41540497        0
Ar       0.00000000       2.59221506       4.58243212        0
Ar      -2.24492410       5.18443013       2.74945927        0
Ar      -1.12246205       4.53637636       0.91648642        0
Ar      -2.24492410       5.18443013       6.41540497        0
Ar      -1.12246205       4.53637636       4.58243212        0
Ar       2.24492410       1.29610753       2.74945927        0
Ar       3.36738614       0.64805377       0.91648642        0
Ar       2.24492410       1.29610753       6.41540497        0
Ar       3.36738614       0.64805377       4.58243212        0
Ar       1.12246205       3.24026883       2.74945927        0
Ar       2.24492410       2.59221506       0.91648642        0
Ar       1.12246205       3.24026883       6.41540497        0
Ar       2.24492410       2.59221506       4.58243212        0
Ar       0.00000000       5.18443013       2.74945927        0
Ar       1.12246205       4.53637636       0.91648642        0
Ar       0.00000000       5.18443013       6.41540497        0
Ar       1.12246205       4.53637636       4.58243212        0
Ar       4.48984819       1.29610753       2.74945927        0
Ar       5.61231024       0.64805377       0.91648642        0
Ar       4.48984819       1.29610753       6.41540497        0
Ar       5.61231024       0.64805377       4.58243212        0
Ar       3.36738614       3.24026883       2.74945927        0
Ar       4.48984819       2.59221506       0.91648642        0
Ar       3.36738614       3.24026883       6.41540497        0
Ar       4.48984819       2.59221506       4.58243212        0
Ar       2.24492410       5.18443013       2.74945927        0
Ar       3.36738614       4.53637636       0.91648642        0
Ar       2.24492410       5.18443013       6.41540497        0
Ar       3.36738614       4.53637636       4.58243212        0
35
Lattice="6.734772289856238 0.0 0.0 -3.3673861449281177 5.832483891718998 0.0 0.0 0.0 7.331891397325881" Properties=species:S:1:pos:R:3:spacegroup_kinds:I:1 spacegroup="P 63/m m c" unit_cell=conventional pbc="T T T"
Ar       1.12246205       0.64805377       0.91648642        0
Ar       0.00000000       1.29610753       6.41540497        0
Ar       1.12246205       0.64805377       4.58243212        0
Ar      -1.12246205       3.24026883       2.74945927        0
Ar       0.00000000       2.59221506       0.91648642        0
Ar      -1.12246205       3.24026883       6.41540497        0
Ar       0.00000000       2.59221506       4.58243212        0
Ar       0.00000000       1.29610753       2.74945927        0
Ar      -1.12246205       4.53637636       0.91648642        0
Ar      -2.24492410       5.18443013       6.41540497        0
Ar      -1.12246205       4.53637636       4.58243212        0
Ar       2.24492410       1.29610753       2.74945927        0
Ar       3.36738614       0.64805377       0.91648642        0
Ar       2.24492410       1.29610753       6.41540497        0
Ar       3.36738614       0.64805377       4.58243212        0
Ar       1.12246205       3.24026883       2.74945927        0
Ar       2.24492410       2.59221506       0.91648642        0
Ar       1.12246205       3.24026883       6.41540497        0
Ar       2.24492410       2.59221506       4.58243212        0
Ar       0.00000000       5.18443013       2.74945927        0
Ar       1.12246205       4.53637636       0.91648642        0
Ar       0.00000000       5.18443013       6.41540497        0
Ar       1.12246205       4.53637636       4.58243212        0
Ar       4.48984819       1.29610753       2.74945927        0
Ar       5.61231024       0.64805377       0.91648642        0
Ar       4.48984819       1.29610753       6.41540497        0
Ar       5.61231024       0.64805377       4.58243212        0
Ar       3.36738614       3.24026883       2.74945927        0
Ar       4.48984819       2.59221506       0.91648642        0
Ar       3.36738614       3.24026883       6.41540497        0
Ar       4.48984819       2.59221506       4.58243212        0
Ar       2.24492410       5.18443013       2.74945927        0
Ar       3.36738614       4.53637636       0.91648642        0
Ar       2.24492410       5.18443013       6.41540497        0
Ar       3.36738614       4.53637636       4.58243212        0
